36
btbt_Et_opt.log	Energy: -936248.9724223
S          0.84938        1.30013       13.78391
C         -0.07563        0.65658       12.41395
C          0.12909        0.95734       11.06668
C         -0.68957        0.36975       10.09903
C         -1.70886       -0.51690       10.50802
C         -1.91980       -0.82095       11.84559
C         -1.10085       -0.23541       12.82516
C         -1.10361       -0.37083       14.25349
C         -0.45622        0.63523        8.62738
C          0.40688       -0.45619        7.96866
H          0.91760        1.64368       10.76870
H         -2.34493       -0.96957        9.75123
H         -2.71320       -1.50274       12.13950
H          0.03066        1.60971        8.49990
H         -1.42090        0.69518        8.10761
H          1.39024       -0.51576        8.44867
H         -0.06982       -1.43870        8.06133
S         -2.09319       -1.30013       15.36957
C         -1.16818       -0.65658       16.73953
C         -1.37291       -0.95734       18.08679
C         -0.55424       -0.36975       19.05445
C          0.46504        0.51690       18.64546
C          0.67599        0.82095       17.30788
C         -0.14296        0.23541       16.32832
C         -0.14020        0.37083       14.89999
C         -0.78759       -0.63523       20.52610
C         -1.65070        0.45619       21.18482
H         -2.16141       -1.64368       18.38478
H          1.10112        0.96957       19.40225
H          1.46939        1.50274       17.01398
H         -1.27447       -1.60971       20.65358
H          0.17709       -0.69518       21.04587
H         -2.63406        0.51576       20.70481
H         -1.17399        1.43870       21.09215
H         -1.80032        0.24757       22.25029
H          0.55651       -0.24757        6.90319
