42
dnbdt_opt_freq.log	Energy: -1126815.4250915
S          1.94623       -0.00198       -2.47545
C          4.63624       -0.00052       -1.65053
C          3.29841       -0.00052       -1.32767
C          2.85062        0.00072        0.03289
C          3.78678        0.00195        1.05111
C          5.17119        0.00199        0.75924
C          6.15539        0.00324        1.78825
C          7.49660        0.00325        1.48319
C          7.92242        0.00202        0.12899
C          6.99923        0.00079       -0.89146
C          5.60388        0.00074       -0.61346
C          0.77352       -0.00094       -1.14367
C          1.39822        0.00047        0.12979
C          0.60918        0.00142        1.28593
H          4.96485       -0.00146       -2.68620
H          3.46738        0.00291        2.09019
H          5.82511        0.00417        2.82427
H          8.23670        0.00421        2.27847
H          8.98470        0.00205       -0.09900
H          7.32422       -0.00016       -1.92901
H          1.07049        0.00250        2.26874
S         -1.94623        0.00198        2.47545
C         -4.63624        0.00052        1.65053
C         -3.29841        0.00052        1.32767
C         -2.85062       -0.00072       -0.03289
C         -3.78678       -0.00195       -1.05111
C         -5.17119       -0.00199       -0.75924
C         -6.15539       -0.00324       -1.78825
C         -7.49660       -0.00325       -1.48319
C         -7.92242       -0.00202       -0.12899
C         -6.99923       -0.00079        0.89146
C         -5.60388       -0.00074        0.61346
C         -0.77352        0.00094        1.14367
C         -1.39822       -0.00047       -0.12979
C         -0.60918       -0.00142       -1.28593
H         -4.96485        0.00146        2.68620
H         -3.46738       -0.00291       -2.09019
H         -5.82511       -0.00417       -2.82427
H         -8.23670       -0.00421       -2.27847
H         -8.98470       -0.00205        0.09900
H         -7.32422        0.00016        1.92901
H         -1.07049       -0.00250       -2.26874
